/prep7
!Q420
MP,EX,  1,2.0600e+05
MP,DENS,1,7.8500e-09
MP,ALPX,1,1.2000e+05
MP,NUXY,1,0.3
!Q345
MP,EX,  2,2.0600e+05
MP,DENS,2,7.8500e-09
MP,ALPX,2,1.2000e+05
MP,NUXY,2,0.3
!Q345
MP,EX,  3,3.4500e+04
MP,DENS,3,2.5000e-09
MP,ALPX,3,1.1000e+05
MP,NUXY,3,0.2